[TITLE]			
EPANET Example Network 2			
Example of modeling a 55-hour fluoride tracer study.			
Measured fluoride data is contained in the file Net2-FL.dat			
and should be registered with the project to produce a			
Calibration Report (select Calibration Data from the Project			
menu).			
			
[JUNCTIONS]			
;ID              			
J-1	;		
J-2	;		
J-3	;		
J-4	;		
J-5	;		
J-6	;		
J-7	;		
J-8	;		
J-9	;		
J-10	;		
J-11	;		
J-12	;		
J-13	;		
J-14	;		
J-15	;		
J-16	;		
J-17	;		
J-18	;		
J-19	;		
J-20	;		
J-191	;		
J-22	;		
J-23	;		
J-24	;		
J-25	;		
J-26	;		
J-27	;		
J-28	;		
J-29	;		
J-30	;		
J-31	;		
J-32	;		
J-33	;		
J-192	;		
J-35	;		
J-36	;		
J-37	;		
J-38	;		
J-39	;		
J-40	;		
J-41	;		
J-42	;		
J-43	;		
J-190	;		
J-45	;		
J-46	;		
J-47	;		
J-48	;		
J-49	;		
J-50	;		
J-51	;		
J-52	;		
J-53	;		
J-54	;		
J-55	;		
J-56	;		
J-57	;		
J-58	;		
J-59	;		
J-60	;		
J-61	;		
J-62	;		
J-63	;		
J-64	;		
J-65	;		
J-66	;		
J-67	;		
J-68	;		
J-193	;		
J-70	;		
J-71	;		
J-72	;		
J-73	;		
J-74	;		
J-75	;		
J-76	;		
J-77	;		
J-78	;		
J-79	;		
J-80	;		
J-81	;		
J-82	;		
J-83	;		
J-84	;		
J-193	;		
J-86	;		
J-87	;		
J-88	;		
J-89	;		
J-90	;		
J-91	;		
J-194	;		
J-93	;		
J-94	;		
J-95	;		
J-96	;		
J-97	;		
J-98	;		
J-99	;		
J-101	;		
J-102	;		
J-103	;		
J-104	;		
J-105	;		
J-106	;		
J-107	;		
J-108	;		
J-109	;		
J-110	;		
J-111	;		
J-112	;		
J-113	;		
J-114	;		
J-115	;		
J-116	;		
J-117	;		
J-118	;		
J-119	;		
J-120	;		
J-121	;		
J-122	;		
J-123	;		
J-124	;		
J-125	;		
J-126	;		
J-127	;		
J-128	;		
J-129	;		
J-130	;		
J-131	;		
J-132	;		
J-133	;		
J-134	;		
J-135	;		
J-136	;		
J-137	;		
J-138	;		
J-139	;		
J-140	;		
J-141	;		
J-142	;		
J-143	;		
J-144	;		
J-145	;		
J-146	;		
J-147	;		
J-148	;		
J-149	;		
J-150	;		
J-151	;		
J-152	;		
J-153	;		
J-154	;		
J-155	;		
J-156	;		
J-157	;		
J-158	;		
J-159	;		
J-160	;		
J-161	;		
J-162	;		
J-163	;		
J-164	;		
J-165	;		
J-166	;		
J-167	;		
J-168	;		
J-169	;		
J-170	;		
J-171	;		
J-172	;		
J-173	;		
J-174	;		
J-175	;		
J-176	;		
J-177	;		
J-178	;		
J-179	;		
J-180	;		
J-181	;		
J-182	;		
J-183	;		
J-184	;		
J-185	;		
J-186	;		
J-187	;		
J-188	;		
J-189	;		
T-1	;		
ClearWell	;		
H-1	;		
H-2	;		
H-3	;		
H-4	;		
H-5	;		
H-6	;		
H-7	;		
H-8	;		
H-9	;		
H-10	;		
H-11	;		
H-12	;		
H-13	;		
H-14	;		
H-15	;		
H-16	;		
H-17	;		
H-18	;		
H-19	;		
H-20	;		
H-21	;		
H-22	;		
H-23	;		
H-24	;		
H-25	;		
H-26	;		
H-28	;		
H-29	;		
H-30	;		
H-31	;		
H-32	;		
H-33	;		
H-35	;		
H-36	;		
H-37	;		
H-38	;		
H-39	;		
H-40	;		
H-41	;		
H-42	;		
H-43	;		
H-44	;		
H-45	;		
H-46	;		
H-47	;		
H-48	;		
H-49	;		
H-50	;		
VSPB-1	;		
2Pump-a	;		
2Pump-b	;		
3Pumpc	;		
3Pumpb	;		
3Pumpa	;		
HT-1	;		
ST-1	;		
ST-2	;		
AV-1    ;      			
			
[PIPES]			
;ID              	Node1           	Node2	
 P-1	T-1	J-1	;
P-16	J-15	J-16	;
P-22	J-191	J-20	;
P-38	J-192	J-35	;
P-39	J-35	J-36	;
P-40	J-36	J-37	;
P-45	J-33	J-41	;
P-49	J-43	J-190	;
P-54	J-46	J-47	;
P-84	J-190	J-66	;
P-85	J-66	J-67	;
P-93	J-14	J-73	;
P-111	J-22	J-193	;
P-112	J-193	J-86	;
P-119	J-5	J-194	;
P-120	J-194	J-93	;
P-121	J-93	J-94	;
P-126	J-95	J-191	;
P-132	J-20	H-1	;
P-133	H-1	J-95	;
P-134	J-1	H-2	;
P-136	J-2	H-3	;
P-138	J-3	H-4	;
P-139	H-4	J-4	;
P-140	J-22	H-5	;
P-141	H-5	J-48	;
P-142	J-23	H-6	;
P-143	H-6	J-24	;
P-145	H-7	J-53	;
P-146	J-25	H-8	;
P-147	H-8	J-26	;
P-148	J-54	H-9	;
P-150	J-27	H-10	;
P-153	H-11	J-60	;
P-155	H-12	J-57	;
P-156	J-28	H-13	;
P-158	J-29	H-14	;
P-160	J-30	H-15	;
P-163	H-16	J-7	;
P-164	J-5	H-17	;
P-165	H-17	J-6	;
P-166	J-8	H-18	;
P-169	H-19	J-89	;
P-170	J-88	H-20	;
P-172	J-11	H-21	;
P-174	J-10	H-22	;
P-176	J-80	H-23	;
P-178	J-78	H-24	;
P-180	J-13	H-25	;
P-183	H-26	J-42	;
P-185	H-28	J-77	;
P-187	H-29	J-43	;
P-188	J-76	H-30	;
P-189	H-30	J-67	;
P-190	J-75	H-31	;
P-191	H-31	J-76	;
P-192	J-14	H-32	;
P-194	J-16	H-33	;
P-195	H-33	J-17	;
P-196	J-68	H-35	;
P-199	H-36	J-70	;
P-200	J-17	H-37	;
P-202	J-18	H-38	;
P-205	H-39	J-71	;
P-207	H-40	J-72	;
P-209	H-41	J-83	;
P-211	H-42	J-84	;
P-213	H-43	J-35	;
P-214	J-33	H-44	;
P-215	H-44	J-192	;
P-216	J-36	H-45	;
P-217	H-45	J-82	;
P-218	J-40	H-46	;
P-219	H-46	J-31	;
P-220	J-38	H-47	;
P-221	H-47	J-39	;
P-223	H-48	J-37	;
P-225	H-49	J-91	;
P-226	J-74	H-50	;
P-229	J-53	AV-1	;
P-230	J-53	ST-1	;
P-231	J-1	ST-2	;
2PumpQ	ClearWell	J-96	;
P-233	J-96	2Pump-a	;
P-234	2Pump-a	J-97	;
P-235	J-97	J-11	;
P-236	J-96	2Pump-b	;
P-237	2Pump-b	J-97	;
3PumpQ	ClearWell	J-98	;
P-239	J-98	3Pumpc	;
P-240	3Pumpc	J-99	;
P-241	J-99	J-11	;
P-242	J-98	3Pumpb	;
P-243	3Pumpb	J-99	;
P-245	J-98	3Pumpa	;
P-246	3Pumpa	J-99	;
P-247	ClearWell	VSPB-1	;
P-248	VSPB-1	J-11	;
P-249	J-97	HT-1	;
P-250	J-53	J-101	;
P-251	J-101	J-54	;
P-252	J-52	J-103	;
P-253	J-103	H-7	;
P-254	J-50	J-104	;
P-255	J-104	J-51	;
P-256	J-51	J-105	;
P-257	J-105	J-64	;
P-258	J-50	J-106	;
P-259	J-106	J-65	;
P-260	J-24	J-107	;
P-261	J-107	J-25	;
P-262	J-24	J-108	;
P-263	J-108	J-50	;
P-264	J-24	J-109	;
P-265	J-109	J-46	;
P-266	J-48	J-110	;
P-267	J-110	J-23	;
P-268	J-25	J-111	;
P-269	J-111	J-49	;
P-270	J-52	J-112	;
P-271	J-112	J-63	;
P-272	J-54	J-113	;
P-273	J-113	J-63	;
P-274	J-63	J-114	;
P-275	J-114	J-64	;
P-276	J-63	J-115	;
P-277	J-115	J-60	;
P-278	H-9	J-116	;
P-279	J-116	J-55	;
P-280	J-64	J-117	;
P-281	J-117	J-61	;
P-282	J-65	J-118	;
P-283	J-118	J-62	;
P-284	J-26	J-119	;
P-285	J-119	J-27	;
P-286	J-65	J-120	;
P-287	J-120	J-26	;
P-288	J-64	J-121	;
P-289	J-121	J-65	;
P-290	J-60	J-122	;
P-291	J-122	J-61	;
P-292	J-55	J-123	;
P-293	J-123	H-11	;
P-294	J-61	J-124	;
P-295	J-124	J-62	;
P-296	J-62	J-125	;
P-297	J-125	J-27	;
P-298	H-10	J-126	;
P-299	J-126	J-28	;
P-300	J-62	J-127	;
P-301	J-127	J-59	;
P-302	J-61	J-128	;
P-303	J-128	J-58	;
P-304	J-58	J-129	;
P-305	J-129	J-59	;
P-306	J-59	J-130	;
P-307	J-130	J-28	;
P-308	J-55	J-131	;
P-309	J-131	J-56	;
P-310	J-60	J-132	;
P-311	J-132	J-57	;
P-312	J-56	J-133	;
P-313	J-133	H-12	;
P-314	J-57	J-134	;
P-315	J-134	J-58	;
P-316	H-13	J-135	;
P-317	J-135	J-29	;
P-318	J-89	J-136	;
P-319	J-136	J-90	;
P-320	J-89	J-137	;
P-321	J-137	H-49	;
P-322	J-88	J-138	;
P-323	J-138	H-19	;
P-324	J-87	J-139	;
P-325	J-139	J-88	;
P-326	H-20	J-140	;
P-327	J-140	J-9	;
P-328	J-11	J-141	;
P-329	J-141	J-87	;
P-330	J-9	J-142	;
P-331	J-142	J-10	;
P-332	H-22	J-143	;
P-333	J-143	J-11	;
P-334	J-29	J-144	;
P-335	J-144	H-16	;
P-336	H-14	J-145	;
P-337	J-145	J-30	;
P-338	H-15	J-146	;
P-339	J-146	J-4	;
P-340	J-6	J-147	;
P-341	J-147	J-30	;
P-342	J-6	J-148	;
P-343	J-148	J-7	;
P-344	J-4	J-149	;
P-345	J-149	J-5	;
P-346	H-18	J-150	;
P-347	J-150	J-9	;
P-348	J-7	J-151	;
P-349	J-151	J-8	;
P-350	J-8	J-152	;
P-351	J-152	J-42	;
P-352	J-42	J-153	;
P-353	J-153	H-29	;
P-354	J-77	J-154	;
P-355	J-154	H-26	;
P-356	J-9	J-155	;
P-357	J-155	J-78	;
P-358	J-80	J-156	;
P-359	J-156	J-78	;
P-360	H-24	J-157	;
P-361	J-157	J-79	;
P-362	H-23	J-158	;
P-363	J-158	J-81	;
P-364	H-21	J-160	;
P-365	J-160	J-12	;
P-366	J-12	J-161	;
P-367	J-161	J-13	;
P-368	J-13	J-162	;
P-369	J-162	J-75	;
P-370	H-25	J-163	;
P-371	J-163	J-14	;
P-372	J-76	J-164	;
P-373	J-164	H-28	;
P-374	J-67	J-166	;
P-375	J-166	J-68	;
P-376	J-68	J-167	;
P-377	J-167	J-15	;
P-378	J-74	J-168	;
P-379	J-168	J-16	;
P-380	H-32	J-169	;
P-381	J-169	J-15	;
P-382	H-50	J-170	;
P-383	J-170	J-17	;
P-384	H-37	J-171	;
P-385	J-171	J-18	;
P-386	H-38	J-172	;
P-387	J-172	J-19	;
P-388	J-18	J-173	;
P-389	J-173	H-39	;
P-390	J-19	J-174	;
P-391	J-174	H-40	;
P-392	J-73	J-165	;
P-393	J-165	J-74	;
P-394	J-51	J-102	;
P-395	J-102	J-52	;
P-396	J-10	J-159	;
P-397	J-159	J-80	;
P-398	J-2	J-175	;
P-399	J-175	J-22	;
P-400	H-2	J-176	;
P-401	J-176	J-2	;
P-402	J-1	J-177	;
P-403	J-177	J-20	;
P-404	J-32	J-178	;
P-405	J-178	J-33	;
P-406	J-31	J-179	;
P-407	J-179	J-32	;
P-408	J-3	J-180	;
P-409	J-180	J-31	;
P-410	H-3	J-181	;
P-411	J-181	J-3	;
P-412	J-40	J-182	;
P-413	J-182	H-43	;
P-414	J-37	J-183	;
P-415	J-183	J-38	;
P-416	J-39	J-184	;
P-417	J-184	J-40	;
P-418	J-45	J-185	;
P-419	J-185	J-38	;
P-420	J-45	J-186	;
P-421	J-186	H-48	;
P-422	J-82	J-187	;
P-423	J-187	H-42	;
P-424	J-82	J-188	;
P-425	J-188	H-41	;
P-426	J-77	J-189	;
P-427	J-189	J-43	;
			
			
[COORDINATES]			
;Node            	X-Coord         	Y-Coord	
 Label	xcoor	ycoor	
J-1	20.65	177.84	
J-2	84.34	282.87	
J-3	187.13	408.01	
J-4	215.06	470.57	
J-5	306.68	530.91	
J-6	335.73	546.55	
J-7	389.36	576.72	
J-8	439.64	605.77	
J-9	565.89	682.86	
J-10	621.87	716.38	
J-11	667.67	742.09	
J-12	708.9	692.91	
J-13	788.23	525.32	
J-14	842.98	381.19	
J-15	867.56	318.62	
J-16	883.2	277.28	
J-17	906.66	212.48	
J-18	918.95	174.49	
J-19	935.71	132.04	
J-20	114.5	159.97	
J-191	235.17	54.94	
J-22	97.74	405.77	
J-23	13.95	553.25	
J-24	69.81	587.89	
J-25	130.15	621.41	
J-26	142.44	628.11	
J-27	225.12	676.16	
J-28	303.33	723.08	
J-29	333.49	673.92	
J-30	305.56	595.71	
J-31	279.86	316.39	
J-32	219.53	276.17	
J-33	251.93	225.89	
J-192	311.15	129.8	
J-35	353.6	152.15	
J-36	407.23	172.26	
J-37	418.41	219.18	
J-38	429.58	351.02	
J-39	426.23	395.72	
J-40	343.55	355.49	
J-41	288.8	246	
J-42	507.79	530.91	
J-43	559.19	332.03	
J-190	588.24	285.1	
J-45	506.67	258.29	
J-46	87.69	557.72	
J-47	150.26	571.13	
J-48	36.29	514.15	
J-49	234.05	626.99	
J-50	57.52	613.59	
J-51	44.12	640.4	
J-52	30.71	667.22	
J-53	10.6	692.91	
J-54	78.75	730.9	
J-55	162.55	780.06	
J-56	244.11	829.22	
J-57	264.22	799.06	
J-58	275.39	774.48	
J-59	288.8	748.78	
J-60	175.96	752.13	
J-61	197.18	725.32	
J-62	210.59	700.74	
J-63	97.74	702.97	
J-64	111.15	677.27	
J-65	125.68	654.93	
J-66	691.03	254.94	
J-67	739.07	272.81	
J-68	781.53	285.1	
J-193	797.17	240.41	
J-70	858.62	261.64	
J-71	841.86	125.33	
J-72	858.62	77.29	
J-73	907.78	412.48	
J-74	946.88	311.92	
J-75	718.96	500.74	
J-76	742.42	421.41	
J-77	626.22	386.78	
J-78	608.35	626.99	
J-79	639.63	586.77	
J-80	658.54	658.2	
J-81	691.03	611.35	
J-82	401.7	132.6	
J-83	387.12	1.31	
J-84	505.56	29.24	
J-193	24	392.36	
J-86	0.54	325.33	
J-87	573.71	849.34	
J-88	480.98	784.53	
J-89	403.88	735.37	
J-90	374.83	720.85	
J-91	436.28	676.16	
J-194	329.02	500.74	
J-93	344.67	475.04	
J-94	304.44	450.46	
J-95	262.36	104.71	
J-96	681.82	755.17	
J-97	674.22	750.73	
J-98	694.37	741.2	
J-99	686.69	737.52	
J-101	39.02	708.59	
J-102	37.35	652.87	
J-103	18.11	680.41	
J-104	50.55	626.97	
J-105	75.21	655.93	
J-106	87.6	631.26	
J-107	101.78	605.65	
J-108	63.42	600.52	
J-109	77.6	571.45	
J-110	24.81	533.56	
J-111	161.62	585.98	
J-112	60.26	680.52	
J-113	87.98	715.98	
J-114	105.26	689.62	
J-115	135.71	725.07	
J-116	113.44	750.07	
J-117	149.35	697.34	
J-118	159.8	673.71	
J-119	176.16	645.98	
J-120	133.89	640.52	
J-121	119.35	663.71	
J-122	185.71	738.71	
J-123	167.82	765.98	
J-124	203.44	713.25	
J-125	217.07	688.71	
J-126	257.53	695.52	
J-127	245.71	720.52	
J-128	231.62	747.34	
J-129	282.07	761.43	
J-130	296.62	735.07	
J-131	202.53	803.25	
J-132	218.89	775.52	
J-133	254.8	810.52	
J-134	268.89	785.52	
J-135	317.07	699.62	
J-136	389.95	727.72	
J-137	418.89	702.8	
J-138	437.07	755.07	
J-139	522.98	812.34	
J-140	520.71	734.16	
J-141	617.07	798.25	
J-142	592.98	698.25	
J-143	642.07	726.43	
J-144	359.34	627.34	
J-145	291.16	636.43	
J-146	219.8	536.89	
J-147	321.62	570.98	
J-148	362.53	561.43	
J-149	261.62	500.98	
J-150	498.89	640.98	
J-151	414.34	591.89	
J-152	468.89	560.98	
J-153	507.63	428.44	
J-154	585.25	470.98	
J-155	585.71	653.71	
J-156	632.07	641.43	
J-157	619.34	610.98	
J-158	670.25	638.71	
J-159	639.56	685.71	
J-160	691.61	715.07	
J-161	757.07	612.8	
J-162	752.52	511.89	
J-163	810.7	458.71	
J-164	685.25	418.71	
J-165	932.98	377.35	
J-166	760.25	275.53	
J-167	822.98	300.53	
J-168	919.79	287.8	
J-169	855.7	346.44	
J-170	967.07	234.62	
J-171	912.98	192.35	
J-172	926.16	154.62	
J-173	881.16	150.53	
J-174	896.16	103.26	
J-175	103	341.43	
J-176	46.08	225.22	
J-177	61.5	167.12	
J-178	235.81	250.12	
J-179	251.23	295.19	
J-180	252.41	360.41	
J-181	150.43	340.25	
J-182	360.32	258.43	
J-183	424.36	285.7	
J-184	382.85	378.19	
J-185	478.9	315.34	
J-186	467.05	232.34	
J-187	483.65	93.6	
J-188	387.6	71.07	
J-189	590.37	355.66	
T-1	0.54	184.55	
ClearWell	691.2	753.02	
H-1	137.26	150.09	
H-2	25.78	187.68	
H-3	103.56	284.91	
H-4	189.12	414.54	
H-5	90.6	415.84	
H-6	63.44	583.97	
H-7	14.64	687.33	
H-8	134.97	623.37	
H-9	87.69	735.21	
H-10	233.78	681.26	
H-11	174.37	754.31	
H-12	260.45	803.11	
H-13	308.34	714.3	
H-14	319.09	665.81	
H-15	299.92	592.4	
H-16	383.82	584.76	
H-17	309.66	532.32	
H-18	447.49	610.08	
H-19	406.14	736.52	
H-20	485.92	777.56	
H-21	674.83	734.49	
H-22	624.26	717.4	
H-23	660.69	654.64	
H-24	610.57	623.62	
H-25	793.42	507.51	
H-26	516.1	527.71	
H-28	639.16	396.87	
H-29	555.32	337.8	
H-30	734.43	281.72	
H-31	734.82	441.44	
H-32	844.29	376.91	
H-33	884.71	273.25	
H-35	783.93	274.56	
H-36	854.58	260.11	
H-37	909.2	204.26	
H-38	920.16	171.13	
H-39	845.51	127.36	
H-40	861.84	79.41	
H-41	384.22	9.71	
H-42	503.63	39.07	
H-43	351.28	157.41	
H-44	256.2	216.12	
H-45	407.73	156.91	
H-46	294.83	323.24	
H-47	428.8	359.62	
H-48	430.81	217.12	
H-49	434.44	679.09	
H-50	952.43	308.48	
VSPB-1	668.71	765.03	
2Pump-a	680.51	749.71	
2Pump-b	674.78	756.19	
3Pumpc	688.14	743.59	
3Pumpb	690.74	739.7	
3Pumpa	692.81	736.17	
HT-1	663.72	754.1	
ST-1	7.71	698.08	
ST-2	3.09	176.58	
			
			
[VERTICES]			
;Link            	X-Coord         	Y-Coord	
			
			
[END]			
